Version 4
SHEET 1 1292 1492
WIRE 304 -48 240 -48
WIRE 448 -48 384 -48
WIRE 416 0 352 0
WIRE 352 16 352 0
WIRE -160 32 -192 32
WIRE 0 32 -160 32
WIRE 128 32 80 32
WIRE 240 32 240 -48
WIRE 240 32 192 32
WIRE 320 32 240 32
WIRE 448 48 448 -48
WIRE 448 48 384 48
WIRE 464 48 448 48
WIRE 544 48 528 48
WIRE 672 48 624 48
WIRE 736 48 672 48
WIRE 848 48 736 48
WIRE 928 48 848 48
WIRE 320 64 272 64
WIRE 672 80 672 48
WIRE 736 80 736 48
WIRE 848 80 848 48
WIRE 352 112 352 80
WIRE 32 144 -112 144
WIRE 160 144 96 144
WIRE 272 144 272 64
WIRE 272 144 240 144
WIRE 272 160 272 144
WIRE 672 176 672 144
WIRE 736 176 736 144
WIRE 848 176 848 144
WIRE 928 176 928 48
WIRE -160 208 -160 32
WIRE 880 240 656 240
WIRE 176 256 80 256
WIRE 272 256 272 240
WIRE 272 256 176 256
WIRE 416 256 416 0
WIRE 480 256 416 256
WIRE 80 272 80 256
WIRE 176 272 176 256
WIRE 272 272 272 256
WIRE 928 320 928 304
WIRE 80 368 80 336
WIRE 176 368 176 352
WIRE 272 368 272 352
WIRE 416 368 416 256
WIRE 416 368 272 368
WIRE -688 448 -688 432
WIRE -160 448 -208 448
WIRE -96 448 -160 448
WIRE 96 448 -32 448
WIRE -160 480 -160 448
WIRE -688 496 -688 448
WIRE 384 512 144 512
WIRE -832 544 -832 496
WIRE -688 544 -688 496
WIRE -528 576 -528 528
WIRE -160 608 -160 560
WIRE -96 608 -160 608
WIRE 16 608 -32 608
WIRE 96 608 96 576
WIRE 96 608 16 608
WIRE 16 672 16 608
WIRE 48 672 16 672
WIRE -832 688 -832 624
WIRE -752 688 -832 688
WIRE -688 688 -688 624
WIRE -688 688 -752 688
WIRE -528 688 -528 656
WIRE -752 736 -752 688
WIRE 384 736 384 512
WIRE 656 736 656 240
WIRE -160 752 -160 608
WIRE -96 752 -160 752
WIRE 96 752 96 736
WIRE 96 752 -32 752
WIRE 96 768 96 752
WIRE 816 768 784 768
WIRE 928 768 896 768
WIRE 496 800 432 800
WIRE -160 832 -160 752
WIRE 48 832 -160 832
WIRE 912 832 848 832
WIRE 848 864 848 832
WIRE 496 880 496 800
WIRE 544 880 496 880
WIRE 656 880 656 816
WIRE 656 880 624 880
WIRE 704 880 656 880
WIRE 784 880 784 768
WIRE 784 880 768 880
WIRE 816 880 784 880
WIRE 384 896 384 864
WIRE 384 896 96 896
WIRE 928 896 928 768
WIRE 928 896 880 896
WIRE 944 896 928 896
WIRE 1024 896 1008 896
WIRE 1120 896 1104 896
WIRE 1184 896 1120 896
WIRE 816 912 800 912
WIRE 96 928 96 896
WIRE 496 960 496 880
WIRE 496 960 432 960
WIRE 800 960 800 912
WIRE 848 976 848 928
WIRE -160 992 -192 992
WIRE -96 992 -160 992
WIRE 96 992 -32 992
WIRE 1120 992 1120 896
WIRE -160 1024 -160 992
WIRE 384 1056 384 1024
WIRE 384 1056 144 1056
WIRE 704 1056 608 1056
WIRE 800 1056 800 1040
WIRE 800 1056 704 1056
WIRE 608 1088 608 1056
WIRE 704 1088 704 1056
WIRE 800 1088 800 1056
WIRE 1120 1104 1120 1056
WIRE 912 1120 912 832
WIRE 960 1120 912 1120
WIRE -160 1152 -160 1104
WIRE -96 1152 -160 1152
WIRE 16 1152 -32 1152
WIRE 96 1152 96 1120
WIRE 96 1152 16 1152
WIRE 608 1200 608 1152
WIRE 704 1200 704 1168
WIRE 16 1216 16 1152
WIRE 48 1216 16 1216
WIRE 800 1216 800 1168
WIRE 912 1216 912 1120
WIRE 912 1216 800 1216
WIRE -160 1296 -160 1152
WIRE -96 1296 -160 1296
WIRE 96 1296 96 1280
WIRE 96 1296 -32 1296
WIRE 96 1312 96 1296
WIRE -160 1376 -160 1296
WIRE 48 1376 -160 1376
FLAG 352 112 0
FLAG 176 368 0
FLAG 80 368 0
FLAG 672 176 0
FLAG 736 176 0
FLAG 848 176 0
FLAG -112 272 0
FLAG 928 320 0
FLAG 96 928 0
FLAG 96 1440 0
FLAG 608 1200 0
FLAG 704 1200 0
FLAG 1120 1104 0
FLAG -528 688 0
FLAG -528 528 +9V
IOPIN -528 528 BiDir
FLAG 480 256 +9V
IOPIN 480 256 BiDir
FLAG 960 1120 +9V
IOPIN 960 1120 BiDir
FLAG 1184 896 OUT
IOPIN 1184 896 Out
FLAG -192 32 IN_MONO
IOPIN -192 32 In
FLAG -208 448 IN_L
IOPIN -208 448 In
FLAG -192 992 IN_P
IOPIN -192 992 In
FLAG 848 976 0
FLAG -752 736 0
FLAG -832 496 IN_MONO
IOPIN -832 496 In
FLAG -688 448 IN_P
IOPIN -688 448 In
FLAG -688 496 IN_L
IOPIN -688 496 In
SYMBOL res 96 16 R90
WINDOW 0 0 56 VBottom 2
WINDOW 3 32 56 VTop 2
SYMATTR InstName R1
SYMATTR Value 4.7k
SYMBOL res 256 128 R90
WINDOW 0 0 56 VBottom 2
WINDOW 3 32 56 VTop 2
SYMATTR InstName R2
SYMATTR Value 10k
SYMBOL cap 96 128 R90
WINDOW 0 0 32 VBottom 2
WINDOW 3 32 32 VTop 2
SYMATTR InstName C1
SYMATTR Value 0.01µ
SYMBOL cap 192 16 R90
WINDOW 0 0 32 VBottom 2
WINDOW 3 32 32 VTop 2
SYMATTR InstName C2
SYMATTR Value 0.05µ
SYMBOL res 400 -64 R90
WINDOW 0 0 56 VBottom 2
WINDOW 3 32 56 VTop 2
SYMATTR InstName R3
SYMATTR Value 1Meg
SYMBOL res 640 32 R90
WINDOW 0 0 56 VBottom 2
WINDOW 3 32 56 VTop 2
SYMATTR InstName R4
SYMATTR Value 10k
SYMBOL cap 96 336 R180
WINDOW 0 24 56 Left 2
WINDOW 3 24 8 Left 2
SYMATTR InstName C3
SYMATTR Value 1µ
SYMBOL Opamps\\LM741 352 -16 R0
SYMATTR InstName U1
SYMBOL cap 528 32 R90
WINDOW 0 0 32 VBottom 2
WINDOW 3 32 32 VTop 2
SYMATTR InstName C4
SYMATTR Value 1µ
SYMBOL cap 688 144 R180
WINDOW 0 24 56 Left 2
WINDOW 3 24 8 Left 2
SYMATTR InstName C5
SYMATTR Value 0.001µ
SYMBOL res 256 144 R0
SYMATTR InstName R5
SYMATTR Value 1Meg
SYMBOL res 256 256 R0
SYMATTR InstName R6
SYMATTR Value 1Meg
SYMBOL res 160 256 R0
SYMATTR InstName R7
SYMATTR Value 1Meg
SYMBOL diode 720 80 R0
SYMATTR InstName D1
SYMATTR Value 1N914
SYMBOL diode 832 144 M180
WINDOW 0 24 64 Left 2
WINDOW 3 24 0 Left 2
SYMATTR InstName D2
SYMATTR Value 1N914
SYMBOL res -176 464 R0
SYMATTR InstName R8
SYMATTR Value 100k
SYMBOL cap -32 432 R90
WINDOW 0 0 32 VBottom 2
WINDOW 3 32 32 VTop 2
SYMATTR InstName C6
SYMATTR Value 22n
SYMBOL cap -32 592 R90
WINDOW 0 0 32 VBottom 2
WINDOW 3 32 32 VTop 2
SYMATTR InstName C7
SYMATTR Value 22n
SYMBOL cap -32 736 R90
WINDOW 0 0 32 VBottom 2
WINDOW 3 32 32 VTop 2
SYMATTR InstName C8
SYMATTR Value 22n
SYMBOL potentiometer -112 256 R0
SYMATTR InstName RP1
SYMATTR SpiceLine R=100k
SYMATTR SpiceLine2 wiper=0.1
SYMBOL potentiometer 928 288 R0
SYMATTR InstName RP2
SYMATTR SpiceLine R=100k
SYMATTR SpiceLine2 wiper=0.1
SYMBOL potentiometer 96 560 M0
SYMATTR InstName RP3
SYMATTR SpiceLine R=50k
SYMATTR SpiceLine2 wiper=0.1
SYMBOL potentiometer 96 720 R0
SYMATTR InstName RP4
SYMATTR SpiceLine R=50k
SYMBOL potentiometer 96 880 R0
SYMATTR InstName RP5
SYMATTR SpiceLine R=50k
SYMATTR SpiceLine2 wiper=0.2
SYMBOL res -176 1008 R0
SYMATTR InstName R9
SYMATTR Value 100k
SYMBOL cap -32 976 R90
WINDOW 0 0 32 VBottom 2
WINDOW 3 32 32 VTop 2
SYMATTR InstName C9
SYMATTR Value 22n
SYMBOL cap -32 1136 R90
WINDOW 0 0 32 VBottom 2
WINDOW 3 32 32 VTop 2
SYMATTR InstName C10
SYMATTR Value 22n
SYMBOL cap -32 1280 R90
WINDOW 0 0 32 VBottom 2
WINDOW 3 32 32 VTop 2
SYMATTR InstName C11
SYMATTR Value 22n
SYMBOL potentiometer 96 1104 M0
SYMATTR InstName RP6
SYMATTR SpiceLine R=50k
SYMBOL potentiometer 96 1264 R0
SYMATTR InstName RP7
SYMATTR SpiceLine R=50k
SYMBOL potentiometer 96 1424 R0
SYMATTR InstName RP8
SYMATTR SpiceLine R=50k
SYMBOL potentiometer 384 848 M0
SYMATTR InstName RP9
SYMATTR SpiceLine R=1meg
SYMBOL potentiometer 384 1008 M0
WINDOW 39 33 -55 Left 2
SYMATTR SpiceLine R=1meg
SYMATTR InstName RP10
SYMBOL res 640 720 R0
SYMATTR InstName R10
SYMATTR Value 4.7k
SYMBOL res 640 864 R90
WINDOW 0 0 56 VBottom 2
WINDOW 3 32 56 VTop 2
SYMATTR InstName R11
SYMATTR Value 4.7k
SYMBOL cap 768 864 R90
WINDOW 0 0 32 VBottom 2
WINDOW 3 32 32 VTop 2
SYMATTR InstName C12
SYMATTR Value 0.05µ
SYMBOL Opamps\\LM741 848 832 R0
SYMATTR InstName U2
SYMBOL res 912 752 R90
WINDOW 0 0 56 VBottom 2
WINDOW 3 32 56 VTop 2
SYMATTR InstName R12
SYMATTR Value 100k
SYMBOL res 1120 880 R90
WINDOW 0 0 56 VBottom 2
WINDOW 3 32 56 VTop 2
SYMATTR InstName R13
SYMATTR Value 10k
SYMBOL res 816 1056 R180
WINDOW 0 36 76 Left 2
WINDOW 3 36 40 Left 2
SYMATTR InstName R14
SYMATTR Value 1Meg
SYMBOL res 816 1184 R180
WINDOW 0 36 76 Left 2
WINDOW 3 36 40 Left 2
SYMATTR InstName R15
SYMATTR Value 1Meg
SYMBOL cap 624 1152 R180
WINDOW 0 24 56 Left 2
WINDOW 3 24 8 Left 2
SYMATTR InstName C13
SYMATTR Value 1µ
SYMBOL res 720 1184 R180
WINDOW 0 36 76 Left 2
WINDOW 3 36 40 Left 2
SYMATTR InstName R16
SYMATTR Value 1Meg
SYMBOL cap 1008 880 R90
WINDOW 0 0 32 VBottom 2
WINDOW 3 32 32 VTop 2
SYMATTR InstName C14
SYMATTR Value 1µ
SYMBOL cap 1136 1056 R180
WINDOW 0 24 56 Left 2
WINDOW 3 24 8 Left 2
SYMATTR InstName C15
SYMATTR Value 0.001µ
SYMBOL voltage -528 560 R0
WINDOW 123 0 0 Left 0
WINDOW 39 0 0 Left 0
SYMATTR InstName V1
SYMATTR Value 9V
SYMBOL voltage -688 528 R0
WINDOW 3 -231 136 Left 2
SYMATTR Value wavefile=guitar_solo chan=0
SYMATTR InstName V2
SYMBOL voltage -832 528 R0
WINDOW 3 -87 108 Left 2
SYMATTR Value wavefile=guitar_akord chan=0
SYMATTR InstName V3
TEXT -872 792 Left 2 !.wave OUT.wav 16 44100 OUT
TEXT -754 840 Left 2 !.tran 5
